@<TRIPOS>MOLECULE
JUNH_FWQ
 72 78 0 0 0
SMALL
GASTEIGER

@<TRIPOS>ATOM
      1  C         19.5640   10.9470   21.5810 C.ar    1  LIG1        0.0200
      2  C         19.2570   10.2640   20.4080 C.ar    1  LIG1        0.1360
      3  C         19.3510    8.8590   20.3660 C.ar    1  LIG1        0.0200
      4  C         19.7760    8.1440   21.5020 C.ar    1  LIG1        0.0220
      5  C         20.0720    6.6480   21.4290 C.3     1  LIG1        0.0590
      6  C         19.0350    5.7500   22.0670 C.ar    1  LIG1        0.0220
      7  C         19.0700    5.3660   23.4130 C.ar    1  LIG1        0.1880
      8  O         19.9160    5.9470   24.2890 O.3     1  LIG1       -0.2870
      9  C         18.2820    4.3250   23.8930 C.ar    1  LIG1        0.0220
     10  C         18.2600    4.0900   25.4000 C.3     1  LIG1        0.0590
     11  C         19.4430    3.3260   25.9970 C.ar    1  LIG1        0.0220
     12  C         19.4620    3.1480   27.3820 C.ar    1  LIG1        0.1880
     13  O         18.5000    3.7730   28.0890 O.3     1  LIG1       -0.2870
     14  C         20.5280    2.5050   28.0020 C.ar    1  LIG1        0.0220
     15  C         20.5160    2.2490   29.4960 C.3     1  LIG1        0.0590
     16  C         21.1440    3.3760   30.3040 C.ar    1  LIG1        0.0220
     17  C         20.4110    4.4750   30.7550 C.ar    1  LIG1        0.1880
     18  O         19.1120    4.6570   30.4270 O.3     1  LIG1       -0.2870
     19  C         21.0290    5.4350   31.5610 C.ar    1  LIG1        0.0220
     20  C         20.2600    6.6450   32.0370 C.3     1  LIG1        0.0590
     21  C         20.3290    7.8000   31.0500 C.ar    1  LIG1        0.0220
     22  C         21.2260    8.8480   31.3050 C.ar    1  LIG1        0.0200
     23  C         21.3410    9.9390   30.4340 C.ar    1  LIG1        0.1360
     24  C         20.4010   10.0620   29.3970 C.ar    1  LIG1        0.0200
     25  C         19.4920    9.0230   29.1320 C.ar    1  LIG1        0.0220
     26  C         18.4900    9.0800   27.9780 C.3     1  LIG1        0.0590
     27  C         18.6530   10.2520   27.0250 C.ar    1  LIG1        0.0220
     28  C         19.4790   10.1210   25.9160 C.ar    1  LIG1        0.1880
     29  O         20.3460    9.0950   25.9000 O.3     1  LIG1       -0.2870
     30  C         19.5860   11.1600   25.0050 C.ar    1  LIG1        0.0220
     31  C         18.7950   12.3100   25.1270 C.ar    1  LIG1        0.0200
     32  C         17.9440   12.4350   26.2340 C.ar    1  LIG1        0.1360
     33  C         20.5750   11.0530   23.8670 C.3     1  LIG1        0.0590
     34  C         17.8320   11.3720   27.1310 C.ar    1  LIG1        0.0200
     35  C         19.4010    7.9500   30.0130 C.ar    1  LIG1        0.1880
     36  O         18.4210    7.0330   29.7620 O.3     1  LIG1       -0.2870
     37  C         22.3380    5.2490   31.9840 C.ar    1  LIG1        0.0200
     38  C         23.0560    4.1240   31.5930 C.ar    1  LIG1        0.1360
     39  C         22.4410    3.1720   30.7770 C.ar    1  LIG1        0.0200
     40  C         21.5110    1.9010   27.2190 C.ar    1  LIG1        0.0200
     41  C         21.5160    2.0520   25.8330 C.ar    1  LIG1        0.1360
     42  C         20.4710    2.7790   25.2410 C.ar    1  LIG1        0.0200
     43  C         17.3900    3.6690   23.0300 C.ar    1  LIG1        0.0200
     44  C         17.4120    3.9920   21.6660 C.ar    1  LIG1        0.1360
     45  C         18.2160    5.0290   21.2080 C.ar    1  LIG1        0.0200
     46  C         20.1360    8.8630   22.6330 C.ar    1  LIG1        0.1880
     47  O         20.7140    8.1880   23.6470 O.3     1  LIG1       -0.2870
     48  C         20.0180   10.2620   22.7000 C.ar    1  LIG1        0.0220
     49  S         18.8130   11.1080   19.1170 S.3     1  LIG1        0.1410
     50  O         19.8970   12.0760   18.8020 O.2     1  LIG1       -0.1400
     51  O         17.5200   11.8390   19.3330 O.3     1  LIG1       -0.0430
     52  O         18.6960   10.2060   17.9690 O.2     1  LIG1       -0.1400
     53  S         22.3700   11.1470   30.7750 S.3     1  LIG1        0.1410
     54  O         22.6860   11.8880   29.5470 O.2     1  LIG1       -0.1400
     55  O         21.7530   12.0640   31.7570 O.3     1  LIG1       -0.0430
     56  O         23.5560   10.5310   31.3970 O.2     1  LIG1       -0.1400
     57  S         17.1090   13.7830   26.4680 S.3     1  LIG1        0.1410
     58  O         16.1250   13.6060   27.5510 O.3     1  LIG1       -0.0430
     59  O         16.3610   14.1120   25.2330 O.2     1  LIG1       -0.1400
     60  O         18.0220   14.8880   26.8190 O.2     1  LIG1       -0.1400
     61  S         24.5900    3.9660   32.0220 S.3     1  LIG1        0.1410
     62  O         25.4270    3.8910   30.8020 O.2     1  LIG1       -0.1400
     63  O         25.0000    5.1340   32.8290 O.2     1  LIG1       -0.1400
     64  O         24.7590    2.7370   32.8300 O.3     1  LIG1       -0.0430
     65  S         22.6330    1.3230   24.9290 S.3     1  LIG1        0.1410
     66  O         22.0160    0.2380   24.1480 O.2     1  LIG1       -0.0430
     67  O         23.3100    2.2720   24.0260 O.2     1  LIG1       -0.1400
     68  O         23.6530    0.7800   25.8520 O.3     1  LIG1       -0.1400
     69  S         16.4130    3.2800   20.6220 S.3     1  LIG1        0.1410
     70  O         16.5660    3.8720   19.2760 O.2     1  LIG1       -0.0430
     71  O         16.6850    1.8360   20.6840 O.2     1  LIG1       -0.1400
     72  O         15.0330    3.4860   21.0860 O.3     1  LIG1       -0.1400
@<TRIPOS>BOND
     1    52    49    2
     2    50    49    2
     3    49    51    1
     4    49     2    1
     5    70    69    2
     6     3     2   ar
     7     3     4   ar
     8     2     1   ar
     9    69    71    2
    10    69    72    1
    11    69    44    1
    12    45    44   ar
    13    45     6   ar
    14     5     4    1
    15     5     6    1
    16     4    46   ar
    17     1    48   ar
    18    44    43   ar
    19     6     7   ar
    20    46    48   ar
    21    46    47    1
    22    48    33    1
    23    43     9   ar
    24     7     9   ar
    25     7     8    1
    26    33    30    1
    27     9    10    1
    28    67    65    2
    29    66    65    2
    30    65    41    1
    31    65    68    1
    32    30    31   ar
    33    30    28   ar
    34    31    32   ar
    35    59    57    2
    36    42    41   ar
    37    42    11   ar
    38    10    11    1
    39    41    40   ar
    40    29    28    1
    41    28    27   ar
    42    11    12   ar
    43    32    57    1
    44    32    34   ar
    45    57    60    2
    46    57    58    1
    47    27    34   ar
    48    27    26    1
    49    40    14   ar
    50    12    14   ar
    51    12    13    1
    52    26    25    1
    53    14    15    1
    54    25    24   ar
    55    25    35   ar
    56    24    23   ar
    57    15    16    1
    58    54    53    2
    59    36    35    1
    60    35    21   ar
    61    16    17   ar
    62    16    39   ar
    63    18    17    1
    64    23    53    1
    65    23    22   ar
    66    17    19   ar
    67    53    56    2
    68    53    55    1
    69    39    38   ar
    70    62    61    2
    71    21    22   ar
    72    21    20    1
    73    19    37   ar
    74    19    20    1
    75    38    37   ar
    76    38    61    1
    77    61    63    2
    78    61    64    1
