@<TRIPOS>MOLECULE
/mnt/alamo01/users/hujun/database/PDBLib/mol2/6hah_FWQ_A_101.pdb
 72 78 0 0 0
SMALL
GASTEIGER

@<TRIPOS>ATOM
      1  C1        19.1880    5.6910   31.4620 C.ar  101  FWQ101      0.0202
      2  C2        18.7540    6.3040   30.2940 C.ar  101  FWQ101      0.0223
      3  C3        18.5550    5.5130   29.1490 C.ar  101  FWQ101      0.1884
      4  C4        18.8170    4.1500   29.1390 C.ar  101  FWQ101      0.0223
      5  C5        19.2220    3.5400   30.3410 C.ar  101  FWQ101      0.0202
      6  C6        19.3960    4.3160   31.5040 C.ar  101  FWQ101      0.1359
      7  C7        18.3030    7.7500   30.3500 C.3   101  FWQ101      0.0592
      8  C8        19.3540    8.6950   29.8130 C.ar  101  FWQ101      0.0223
      9  C9        20.2130    9.3530   30.7040 C.ar  101  FWQ101      0.0202
     10  C10       21.1250   10.2900   30.2020 C.ar  101  FWQ101      0.1359
     11  C11       21.2230   10.4740   28.8230 C.ar  101  FWQ101      0.0202
     12  C12       20.3380    9.8490   27.9480 C.ar  101  FWQ101      0.0223
     13  C14       20.4840   10.0180   26.4450 C.3   101  FWQ101      0.0592
     14  C15       18.4350    3.3150   27.9190 C.3   101  FWQ101      0.0592
     15  C16       19.4520    3.3000   26.7990 C.ar  101  FWQ101      0.0223
     16  C17       20.1850    2.1320   26.6330 C.ar  101  FWQ101      0.0202
     17  C19       21.0270    2.8870   24.4940 C.ar  101  FWQ101      0.0202
     18  C21       19.4650    4.2340   25.7570 C.ar  101  FWQ101      0.1884
     19  C18       20.9520    1.9090   25.4960 C.ar  101  FWQ101      0.1359
     20  C20       20.2170    4.0280   24.6050 C.ar  101  FWQ101      0.0223
     21  C36       19.1120    5.3570   22.6590 C.ar  101  FWQ101      0.0223
     22  C37       18.0180    4.5040   22.6210 C.ar  101  FWQ101      0.0202
     23  C13       19.4500    8.9040   28.4460 C.ar  101  FWQ101      0.1884
     24  C29       20.3030    5.1730   23.6010 C.3   101  FWQ101      0.0592
     25  C38       16.9670    4.6930   21.7110 C.ar  101  FWQ101      0.1359
     26  C39       17.0340    5.7820   20.8430 C.ar  101  FWQ101      0.0202
     27  C40       18.0880    6.6920   20.9150 C.ar  101  FWQ101      0.0223
     28  C41       19.1550    6.4330   21.7700 C.ar  101  FWQ101      0.1884
     29  C43       18.1620    7.8150   19.9010 C.3   101  FWQ101      0.0592
     30  C44       19.5410   11.0350   25.8000 C.ar  101  FWQ101      0.0223
     31  C45       19.6160   11.2010   24.4210 C.ar  101  FWQ101      0.1884
     32  C46       18.7360   12.0640   23.7590 C.ar  101  FWQ101      0.0223
     33  C47       17.9140   12.9020   24.5250 C.ar  101  FWQ101      0.0202
     34  C48       17.8150   12.7560   25.9150 C.ar  101  FWQ101      0.1359
     35  C49       18.7060   11.8780   26.5550 C.ar  101  FWQ101      0.0202
     36  C50       17.6410    9.1420   20.4340 C.ar  101  FWQ101      0.0223
     37  C51       16.3600    9.5280   20.0340 C.ar  101  FWQ101      0.0202
     38  C52       15.8420   10.7670   20.4150 C.ar  101  FWQ101      0.1359
     39  C53       16.6400   11.6430   21.1420 C.ar  101  FWQ101      0.0202
     40  C54       17.9340   11.2890   21.5010 C.ar  101  FWQ101      0.0223
     41  C55       18.4550   10.0540   21.1080 C.ar  101  FWQ101      0.1884
     42  O1        20.5310   10.4310   23.7610 O.3   101  FWQ101     -0.2872
     43  O2        18.5270    8.4080   27.6050 O.3   101  FWQ101     -0.2872
     44  O3        17.9940    6.0520   28.0480 O.3   101  FWQ101     -0.2872
     45  O4        18.6990    5.3440   25.7960 O.3   101  FWQ101     -0.2872
     46  O5        20.1850    7.2920   21.9010 O.3   101  FWQ101     -0.2872
     47  O6        19.7440    9.7780   21.4110 O.3   101  FWQ101     -0.2872
     48  S64       16.8730   13.7610   26.7740 S.3   101  FWQ101      0.1408
     49  S67       22.0430   11.1430   31.2000 S.3   101  FWQ101      0.1408
     50  S68       19.8190    3.6430   32.8990 S.3   101  FWQ101      0.1408
     51  S69       21.8550    0.5770   25.4330 S.3   101  FWQ101      0.1408
     52  S70       15.7660    3.6240   21.5990 S.3   101  FWQ101      0.1408
     53  S71       14.3250   11.1580   20.0820 S.3   101  FWQ101      0.1408
     54  C72       18.7920   12.2780   22.2540 C.3   101  FWQ101      0.0592
     55  O7        17.7500   14.8260   27.2910 O.2   101  FWQ101     -0.1397
     56  O8        16.2910   13.0370   27.9240 O.3   101  FWQ101     -0.0426
     57  O9        15.7910   14.2710   25.9220 O.2   101  FWQ101     -0.1397
     58  O10       23.1680   11.7480   30.4590 O.2   101  FWQ101     -0.1397
     59  O11       21.2230   12.2010   31.8330 O.2   101  FWQ101     -0.1397
     60  O12       22.5770   10.2890   32.2780 O.3   101  FWQ101     -0.0426
     61  O13       21.2390    3.9020   33.1480 O.2   101  FWQ101     -0.1397
     62  O14       18.9950    4.1490   34.0470 O.3   101  FWQ101     -0.0426
     63  O15       19.6600    2.1710   32.7700 O.2   101  FWQ101     -0.1397
     64  O16       23.2700    0.9750   25.3990 O.2   101  FWQ101     -0.1397
     65  O17       21.5570   -0.0850   24.1530 O.2   101  FWQ101     -0.1397
     66  O18       21.6170   -0.2660   26.6240 O.3   101  FWQ101     -0.0426
     67  O19       16.2760    2.4760   20.8180 O.2   101  FWQ101     -0.1397
     68  O20       14.6080    4.1760   20.8740 O.2   101  FWQ101     -0.1397
     69  O21       15.3560    3.1890   22.9440 O.3   101  FWQ101     -0.0426
     70  O22       13.8430   12.1630   21.0570 O.3   101  FWQ101     -0.0426
     71  O23       13.4740    9.9530   20.1700 O.2   101  FWQ101     -0.1397
     72  O24       14.2590   11.7110   18.7090 O.2   101  FWQ101     -0.1397
@<TRIPOS>BOND
     1    72    53    2
     2    29    36    1
     3    29    27    1
     4    37    38   ar
     5    37    36   ar
     6    53    71    2
     7    53    38    1
     8    53    70    1
     9    38    39   ar
    10    36    41   ar
    11    67    52    2
    12    26    27   ar
    13    26    25   ar
    14    68    52    2
    15    27    28   ar
    16    41    47    1
    17    41    40   ar
    18    39    40   ar
    19    40    54    1
    20    52    25    1
    21    52    69    1
    22    25    22   ar
    23    28    46    1
    24    28    21   ar
    25    54    32    1
    26    22    21   ar
    27    21    24    1
    28    24    20    1
    29    32    31   ar
    30    32    33   ar
    31    42    31    1
    32    65    51    2
    33    31    30   ar
    34    17    20   ar
    35    17    19   ar
    36    33    34   ar
    37    20    18   ar
    38    64    51    2
    39    51    19    1
    40    51    66    1
    41    19    16   ar
    42    18    45    1
    43    18    15   ar
    44    30    13    1
    45    30    35   ar
    46    34    35   ar
    47    34    48    1
    48    57    48    2
    49    13    12    1
    50    16    15   ar
    51    48    55    2
    52    48    56    1
    53    15    14    1
    54    43    23    1
    55    14     4    1
    56    12    23   ar
    57    12    11   ar
    58    44     3    1
    59    23     8   ar
    60    11    10   ar
    61     4     3   ar
    62     4     5   ar
    63     3     2   ar
    64     8     7    1
    65     8     9   ar
    66    10     9   ar
    67    10    49    1
    68     2     7    1
    69     2     1   ar
    70     5     6   ar
    71    58    49    2
    72    49    59    2
    73    49    60    1
    74     1     6   ar
    75     6    50    1
    76    63    50    2
    77    50    61    2
    78    50    62    1
